pcf
* control data
restart estimation
32 2940 1 0 20
2 20 single point
10 -3.0 0.3 0.01 10 lamforgive deforgive
10.0 10.0 0.001
0.1
50 0.001 4 4 0.01 4
1 1 1 reisaveitn
* singular value decomposition
1
32 1e-7
1
* parameter groups
catch_scale relative 0.015 0 switch 2 parabolic
* parameter data
lw_fac log factor 1 0.8 1.1 catch_scale 1 0
sw_fac log factor 1 0.75 1.1 catch_scale 1 0
wind_fac log factor 1 0.5 1.5 catch_scale 1 0
cd tied factor 0.0016 0.0011 0.0018 catch_scale 1 0
ce log factor 0.0016 0.0011 0.0018 catch_scale 1 0
ch log factor 0.0016 0.0011 0.0018 catch_scale 1 0
kw log factor 0.45 0.1 1 catch_scale 1 0
sed_temp_m1 log factor 10 5 16 catch_scale 1 0
sed_temp_m2 log factor 11 6 17 catch_scale 1 0
sed_temp_m3 log factor 15 8 20 catch_scale 1 0
sed_temp_m4 log factor 18 10 24 catch_scale 1 0
sed_temp_a1 log factor 3 2 12 catch_scale 1 0
sed_temp_a2 log factor 4 2 12 catch_scale 1 0
sed_temp_a3 log factor 6 2 12 catch_scale 1 0
sed_temp_a4 log factor 6 2 12 catch_scale 1 0
sed_temp_d1 log factor 280 260 290 catch_scale 1 0
sed_temp_d2 log factor 280 260 290 catch_scale 1 0
sed_temp_d3 log factor 280 260 290 catch_scale 1 0
sed_temp_d4 log factor 280 260 290 catch_scale 1 0
sed_heat_k1 log factor 1.3 1 1.4 catch_scale 1 0
sed_heat_k2 log factor 1.3 1 1.4 catch_scale 1 0
sed_heat_k3 log factor 1.25 1 1.4 catch_scale 1 0
sed_heat_k4 log factor 1.25 1 1.4 catch_scale 1 0
fsed_oxy1 log factor 30 10 60 catch_scale -1 0
fsed_oxy2 log factor 20 2 40 catch_scale -1 0
fsed_oxy3 log factor 15 2 40 catch_scale -1 0
fsed_oxy4 log factor 10 2 40 catch_scale -1 0
ksed_oxy log factor 29 1 50 catch_scale 1 0
thsed_oxy log factor 1 0.8 1.2 catch_scale 1 0
inflow_fac log factor 0.5 0.1 1.3 catch_scale 1 0
outflow_fac tied factor 0.5 0.1 1.3 catch_scale 1 0
coef_mix_hyp log factor 2e-6 1e-7 4e-6 catch_scale 1 0
cd ce
outflow_fac inflow_fac
* observation groups
temp_0.1
temp_1
temp_2
temp_3
temp_4
temp_5
temp_6
temp_7
temp_8
temp_9
oxy_0.1
oxy_1
oxy_2
oxy_3
oxy_4
oxy_5
oxy_6
oxy_7
oxy_8
oxy_9
* observation data
wq0.1_t_1	8.7574	0.173391221	temp_0.1
wq0.1_t_2	4.45	0.173391221	temp_0.1
wq0.1_t_3	7.8	0.173391221	temp_0.1
wq0.1_t_4	8.1	0.173391221	temp_0.1
wq0.1_t_5	11.696	0.173391221	temp_0.1
wq0.1_t_6	12.4	0.173391221	temp_0.1
wq0.1_t_7	13.4659	0.173391221	temp_0.1
wq0.1_t_8	13.9	0.173391221	temp_0.1
wq0.1_t_9	19.0712	0.173391221	temp_0.1
wq0.1_t_10	18.05	0.173391221	temp_0.1
wq0.1_t_11	16.1635	0.173391221	temp_0.1
wq0.1_t_12	19.4914	0.173391221	temp_0.1
wq0.1_t_13	19.65	0.173391221	temp_0.1
wq0.1_t_14	17.1867	0.173391221	temp_0.1
wq0.1_t_15	14.9571	0.173391221	temp_0.1
wq0.1_t_16	14.95	0.173391221	temp_0.1
wq0.1_t_17	15.0035	0.173391221	temp_0.1
wq0.1_t_18	17.5529	0.173391221	temp_0.1
wq0.1_t_19	17.3	0.173391221	temp_0.1
wq0.1_t_20	22.3	0.173391221	temp_0.1
wq0.1_t_21	19.3	0.173391221	temp_0.1
wq0.1_t_22	18.3	0.173391221	temp_0.1
wq0.1_t_23	20.6	0.173391221	temp_0.1
wq0.1_t_24	21.1	0.173391221	temp_0.1
wq0.1_t_25	21.9	0.173391221	temp_0.1
wq0.1_t_26	21.8	0.173391221	temp_0.1
wq0.1_t_27	20.1	0.173391221	temp_0.1
wq0.1_t_28	23.1	0.173391221	temp_0.1
wq0.1_t_29	25.5	0.173391221	temp_0.1
wq0.1_t_30	24.2	0.173391221	temp_0.1
wq0.1_t_31	22.05	0.173391221	temp_0.1
wq0.1_t_32	25.8	0.173391221	temp_0.1
wq0.1_t_33	28.8	0.173391221	temp_0.1
wq0.1_t_34	27	0.173391221	temp_0.1
wq0.1_t_35	28.6	0.173391221	temp_0.1
wq0.1_t_36	24.6	0.173391221	temp_0.1
wq0.1_t_37	24.3	0.173391221	temp_0.1
wq0.1_t_38	24.8	0.173391221	temp_0.1
wq0.1_t_39	27.3	0.173391221	temp_0.1
wq0.1_t_40	17.5	0.173391221	temp_0.1
wq0.1_t_41	22	0.173391221	temp_0.1
wq0.1_t_42	16.7	0.173391221	temp_0.1
wq0.1_t_43	18.4	0.173391221	temp_0.1
wq0.1_t_44	19.2	0.173391221	temp_0.1
wq0.1_t_45	20.7	0.173391221	temp_0.1
wq0.1_t_46	14.3	0.173391221	temp_0.1
wq0.1_t_47	2.4	0.173391221	temp_0.1
wq0.1_t_48	6.5	0.173391221	temp_0.1
wq0.1_t_49	9.1	0.173391221	temp_0.1
wq0.1_t_50	10.9	0.173391221	temp_0.1
wq0.1_t_51	9.8	0.173391221	temp_0.1
wq0.1_t_52	14.7479	0.173391221	temp_0.1
wq0.1_t_53	13.5607	0.173391221	temp_0.1
wq0.1_t_54	14.1982	0.173391221	temp_0.1
wq0.1_t_55	19.5629	0.173391221	temp_0.1
wq0.1_t_56	19.9079	0.173391221	temp_0.1
wq0.1_t_57	21.1883	0.173391221	temp_0.1
wq0.1_t_58	23.6513	0.173391221	temp_0.1
wq0.1_t_59	22.6666	0.173391221	temp_0.1
wq0.1_t_60	22	0.173391221	temp_0.1
wq0.1_t_61	23.1231	0.173391221	temp_0.1
wq0.1_t_62	22.5203	0.173391221	temp_0.1
wq0.1_t_63	22.6763	0.173391221	temp_0.1
wq0.1_t_64	23.4003	0.173391221	temp_0.1
wq0.1_t_65	23.0855	0.173391221	temp_0.1
wq0.1_t_66	24.6738	0.173391221	temp_0.1
wq0.1_t_67	24.7688	0.173391221	temp_0.1
wq0.1_t_68	27.3134	0.173391221	temp_0.1
wq0.1_t_69	27.3263	0.173391221	temp_0.1
wq0.1_t_70	26.2054	0.173391221	temp_0.1
wq0.1_t_71	23.952	0.173391221	temp_0.1
wq0.1_t_72	27.452	0.173391221	temp_0.1
wq0.1_t_73	28.8083	0.173391221	temp_0.1
wq0.1_t_74	25.5168	0.173391221	temp_0.1
wq0.1_t_75	27.3995	0.173391221	temp_0.1
wq0.1_t_76	26.9707	0.173391221	temp_0.1
wq0.1_t_77	24.9385	0.173391221	temp_0.1
wq0.1_t_78	27.636	0.173391221	temp_0.1
wq0.1_t_79	25.5	0.173391221	temp_0.1
wq0.1_t_80	25.3842	0.173391221	temp_0.1
wq0.1_t_81	25.983	0.173391221	temp_0.1
wq0.1_t_82	28.4272	0.173391221	temp_0.1
wq0.1_t_83	26.3496	0.173391221	temp_0.1
wq0.1_t_84	26.6	0.173391221	temp_0.1
wq0.1_t_85	26.5094	0.173391221	temp_0.1
wq0.1_t_86	26.9415	0.173391221	temp_0.1
wq0.1_t_87	25.8962	0.173391221	temp_0.1
wq0.1_t_88	24.372	0.173391221	temp_0.1
wq0.1_t_89	26.0445	0.173391221	temp_0.1
wq0.1_t_90	26.117	0.173391221	temp_0.1
wq0.1_t_91	28.0762	0.173391221	temp_0.1
wq0.1_t_92	23.8694	0.173391221	temp_0.1
wq0.1_t_93	24.3203	0.173391221	temp_0.1
wq0.1_t_94	22.8417	0.173391221	temp_0.1
wq0.1_t_95	24.7236	0.173391221	temp_0.1
wq0.1_t_96	21.4644	0.173391221	temp_0.1
wq0.1_t_97	21.3117	0.173391221	temp_0.1
wq0.1_t_98	24.0209	0.173391221	temp_0.1
wq0.1_t_99	23.4392	0.173391221	temp_0.1
wq0.1_t_100	17.502	0.173391221	temp_0.1
wq0.1_t_101	16.0301	0.173391221	temp_0.1
wq0.1_t_102	15.3	0.173391221	temp_0.1
wq0.1_t_103	14.4926	0.173391221	temp_0.1
wq0.1_t_104	12.1781	0.173391221	temp_0.1
wq0.1_t_105	12.7126	0.173391221	temp_0.1
wq0.1_t_106	13.4469	0.173391221	temp_0.1
wq0.1_t_107	8.5742	0.173391221	temp_0.1
wq0.1_t_108	2.3	0.173391221	temp_0.1
wq0.1_t_109	4.886	0.173391221	temp_0.1
wq0.1_t_110	9	0.173391221	temp_0.1
wq0.1_t_111	10.8	0.173391221	temp_0.1
wq0.1_t_112	16.8	0.173391221	temp_0.1
wq0.1_t_113	20.4	0.173391221	temp_0.1
wq0.1_t_114	21.1	0.173391221	temp_0.1
wq0.1_t_115	22.9	0.173391221	temp_0.1
wq0.1_t_116	23.3	0.173391221	temp_0.1
wq0.1_t_117	25	0.173391221	temp_0.1
wq0.1_t_118	23.701	0.173391221	temp_0.1
wq0.1_t_119	25.2851	0.173391221	temp_0.1
wq0.1_t_120	21.6169	0.173391221	temp_0.1
wq0.1_t_121	21.6123	0.173391221	temp_0.1
wq0.1_t_122	23.4395	0.173391221	temp_0.1
wq0.1_t_123	24.8796	0.173391221	temp_0.1
wq0.1_t_124	23.7818	0.173391221	temp_0.1
wq0.1_t_125	25.4849	0.173391221	temp_0.1
wq0.1_t_126	26.5245	0.173391221	temp_0.1
wq0.1_t_127	26.0533	0.173391221	temp_0.1
wq0.1_t_128	27.1817	0.173391221	temp_0.1
wq0.1_t_129	27.8368	0.173391221	temp_0.1
wq0.1_t_130	26.9808	0.173391221	temp_0.1
wq0.1_t_131	27.2727	0.173391221	temp_0.1
wq0.1_t_132	26.2249	0.173391221	temp_0.1
wq0.1_t_133	25.4639	0.173391221	temp_0.1
wq0.1_t_134	26.496	0.173391221	temp_0.1
wq0.1_t_135	25.6866	0.173391221	temp_0.1
wq0.1_t_136	25.4176	0.173391221	temp_0.1
wq0.1_t_137	27.1478	0.173391221	temp_0.1
wq0.1_t_138	26.8499	0.173391221	temp_0.1
wq0.1_t_139	27.1844	0.173391221	temp_0.1
wq0.1_t_140	27.299	0.173391221	temp_0.1
wq0.1_t_141	24.5514	0.173391221	temp_0.1
wq0.1_t_142	22.1291	0.173391221	temp_0.1
wq0.1_t_143	22.2232	0.173391221	temp_0.1
wq0.1_t_144	25.2603	0.173391221	temp_0.1
wq0.1_t_145	24.0547	0.173391221	temp_0.1
wq0.1_t_146	19.4388	0.173391221	temp_0.1
wq0.1_t_147	15.0777	0.173391221	temp_0.1
wq0.1_t_148	14.3937	0.173391221	temp_0.1
wq0.1_t_149	14.2677	0.173391221	temp_0.1
wq0.1_t_150	15.5647	0.173391221	temp_0.1
wq0.1_t_151	15.373	0.173391221	temp_0.1
wq0.1_t_152	12.6855	0.173391221	temp_0.1
wq0.1_t_153	8.2547	0.173391221	temp_0.1
wq0.1_t_154	6.0482	0.173391221	temp_0.1
wq1_t_1	8.7036	0.173391221	temp_1
wq1_t_2	4.2	0.173391221	temp_1
wq1_t_3	8.9	0.173391221	temp_1
wq1_t_4	11.7836	0.173391221	temp_1
wq1_t_5	11.8	0.173391221	temp_1
wq1_t_6	13.7861	0.173391221	temp_1
wq1_t_7	13.1	0.173391221	temp_1
wq1_t_8	17.6792	0.173391221	temp_1
wq1_t_9	16.0313	0.173391221	temp_1
wq1_t_10	17.6644	0.173391221	temp_1
wq1_t_11	16.3492	0.173391221	temp_1
wq1_t_12	14.8675	0.173391221	temp_1
wq1_t_13	15	0.173391221	temp_1
wq1_t_14	14.794	0.173391221	temp_1
wq1_t_15	17.4872	0.173391221	temp_1
wq1_t_16	17.6	0.173391221	temp_1
wq1_t_17	22.1	0.173391221	temp_1
wq1_t_18	20.3	0.173391221	temp_1
wq1_t_19	18.1	0.173391221	temp_1
wq1_t_20	20.5	0.173391221	temp_1
wq1_t_21	18.6	0.173391221	temp_1
wq1_t_22	19.2	0.173391221	temp_1
wq1_t_23	22.1	0.173391221	temp_1
wq1_t_24	20.1	0.173391221	temp_1
wq1_t_25	23	0.173391221	temp_1
wq1_t_26	24.7	0.173391221	temp_1
wq1_t_27	24.1	0.173391221	temp_1
wq1_t_28	25.3	0.173391221	temp_1
wq1_t_29	25.6	0.173391221	temp_1
wq1_t_30	27.4	0.173391221	temp_1
wq1_t_31	26.6	0.173391221	temp_1
wq1_t_32	28.5	0.173391221	temp_1
wq1_t_33	24.5	0.173391221	temp_1
wq1_t_34	24.4	0.173391221	temp_1
wq1_t_35	24.9	0.173391221	temp_1
wq1_t_36	26.7	0.173391221	temp_1
wq1_t_37	24.1	0.173391221	temp_1
wq1_t_38	21.5	0.173391221	temp_1
wq1_t_39	19.5	0.173391221	temp_1
wq1_t_40	21.5	0.173391221	temp_1
wq1_t_41	23.1	0.173391221	temp_1
wq1_t_42	20.9	0.173391221	temp_1
wq1_t_43	14	0.173391221	temp_1
wq1_t_44	2.6	0.173391221	temp_1
wq1_t_45	6.3	0.173391221	temp_1
wq1_t_46	10.9	0.173391221	temp_1
wq1_t_47	9.9	0.173391221	temp_1
wq1_t_48	14.7933	0.173391221	temp_1
wq1_t_49	13.5007	0.173391221	temp_1
wq1_t_50	14.1616	0.173391221	temp_1
wq1_t_51	16.6785	0.173391221	temp_1
wq1_t_52	19.9103	0.173391221	temp_1
wq1_t_53	20.9199	0.173391221	temp_1
wq1_t_54	23.5748	0.173391221	temp_1
wq1_t_55	21.7405	0.173391221	temp_1
wq1_t_56	19.8	0.173391221	temp_1
wq1_t_57	20.331	0.173391221	temp_1
wq1_t_58	20.0947	0.173391221	temp_1
wq1_t_59	20.8529	0.173391221	temp_1
wq1_t_60	23.1671	0.173391221	temp_1
wq1_t_61	22.7822	0.173391221	temp_1
wq1_t_62	24.68	0.173391221	temp_1
wq1_t_63	23.1242	0.173391221	temp_1
wq1_t_64	24.4994	0.173391221	temp_1
wq1_t_65	26.4212	0.173391221	temp_1
wq1_t_66	26.2063	0.173391221	temp_1
wq1_t_67	23.8528	0.173391221	temp_1
wq1_t_68	25.5154	0.173391221	temp_1
wq1_t_69	27.0201	0.173391221	temp_1
wq1_t_70	25.7468	0.173391221	temp_1
wq1_t_71	27.2692	0.173391221	temp_1
wq1_t_72	26.7712	0.173391221	temp_1
wq1_t_73	25.1816	0.173391221	temp_1
wq1_t_74	25.3062	0.173391221	temp_1
wq1_t_75	25.6	0.173391221	temp_1
wq1_t_76	25.0658	0.173391221	temp_1
wq1_t_77	26.1238	0.173391221	temp_1
wq1_t_78	26.3115	0.173391221	temp_1
wq1_t_79	26.4705	0.173391221	temp_1
wq1_t_80	26.3	0.173391221	temp_1
wq1_t_81	25.4828	0.173391221	temp_1
wq1_t_82	26.2019	0.173391221	temp_1
wq1_t_83	25.8152	0.173391221	temp_1
wq1_t_84	23.8242	0.173391221	temp_1
wq1_t_85	24.5103	0.173391221	temp_1
wq1_t_86	25.9928	0.173391221	temp_1
wq1_t_87	26.5807	0.173391221	temp_1
wq1_t_88	23.9875	0.173391221	temp_1
wq1_t_89	23.7735	0.173391221	temp_1
wq1_t_90	22.5649	0.173391221	temp_1
wq1_t_91	23.8721	0.173391221	temp_1
wq1_t_92	22.0204	0.173391221	temp_1
wq1_t_93	20.8297	0.173391221	temp_1
wq1_t_94	21.9599	0.173391221	temp_1
wq1_t_95	22.8504	0.173391221	temp_1
wq1_t_96	17.3319	0.173391221	temp_1
wq1_t_97	15.879	0.173391221	temp_1
wq1_t_98	15.3	0.173391221	temp_1
wq1_t_99	14.3858	0.173391221	temp_1
wq1_t_100	12.0927	0.173391221	temp_1
wq1_t_101	12.5746	0.173391221	temp_1
wq1_t_102	12.933	0.173391221	temp_1
wq1_t_103	8.1398	0.173391221	temp_1
wq1_t_104	2.3	0.173391221	temp_1
wq1_t_105	4.8756	0.173391221	temp_1
wq1_t_106	8.5	0.173391221	temp_1
wq1_t_107	20.3	0.173391221	temp_1
wq1_t_108	22.1	0.173391221	temp_1
wq1_t_109	24.9	0.173391221	temp_1
wq1_t_110	23.6643	0.173391221	temp_1
wq1_t_111	23.1468	0.173391221	temp_1
wq1_t_112	21.2652	0.173391221	temp_1
wq1_t_113	21.4024	0.173391221	temp_1
wq1_t_114	23.3641	0.173391221	temp_1
wq1_t_115	23.5203	0.173391221	temp_1
wq1_t_116	23.4688	0.173391221	temp_1
wq1_t_117	25.2753	0.173391221	temp_1
wq1_t_118	26.4406	0.173391221	temp_1
wq1_t_119	26.0384	0.173391221	temp_1
wq1_t_120	29.1191	0.173391221	temp_1
wq1_t_121	27.5106	0.173391221	temp_1
wq1_t_122	27.591	0.173391221	temp_1
wq1_t_123	27.3281	0.173391221	temp_1
wq1_t_124	26.1616	0.173391221	temp_1
wq1_t_125	25.3866	0.173391221	temp_1
wq1_t_126	26.2779	0.173391221	temp_1
wq1_t_127	25.5691	0.173391221	temp_1
wq1_t_128	25.2582	0.173391221	temp_1
wq1_t_129	25.9988	0.173391221	temp_1
wq1_t_130	25.9571	0.173391221	temp_1
wq1_t_131	27.4223	0.173391221	temp_1
wq1_t_132	27.2475	0.173391221	temp_1
wq1_t_133	24.5102	0.173391221	temp_1
wq1_t_134	22.0398	0.173391221	temp_1
wq1_t_135	23.4512	0.173391221	temp_1
wq1_t_136	23.573	0.173391221	temp_1
wq1_t_137	14.9345	0.173391221	temp_1
wq1_t_138	14.4934	0.173391221	temp_1
wq1_t_139	14.1173	0.173391221	temp_1
wq1_t_140	15.4904	0.173391221	temp_1
wq1_t_141	15.2674	0.173391221	temp_1
wq1_t_142	12.6428	0.173391221	temp_1
wq1_t_143	7.8913	0.173391221	temp_1
wq1_t_144	5.5854	0.173391221	temp_1
wq2_t_1	8.6171	0.173391221	temp_2
wq2_t_2	4.1	0.173391221	temp_2
wq2_t_3	8.8	0.173391221	temp_2
wq2_t_4	8.1	0.173391221	temp_2
wq2_t_5	11.7219	0.173391221	temp_2
wq2_t_6	11.3	0.173391221	temp_2
wq2_t_7	13.19	0.173391221	temp_2
wq2_t_8	12.7	0.173391221	temp_2
wq2_t_9	13.854	0.173391221	temp_2
wq2_t_10	17.3	0.173391221	temp_2
wq2_t_11	14.2371	0.173391221	temp_2
wq2_t_12	14.4583	0.173391221	temp_2
wq2_t_13	17.5	0.173391221	temp_2
wq2_t_14	15.0129	0.173391221	temp_2
wq2_t_15	14.698	0.173391221	temp_2
wq2_t_16	14.8	0.173391221	temp_2
wq2_t_17	13.5531	0.173391221	temp_2
wq2_t_18	14.8232	0.173391221	temp_2
wq2_t_19	17.6	0.173391221	temp_2
wq2_t_20	18.3	0.173391221	temp_2
wq2_t_21	20.3	0.173391221	temp_2
wq2_t_22	17.4	0.173391221	temp_2
wq2_t_23	17.6	0.173391221	temp_2
wq2_t_24	17.6	0.173391221	temp_2
wq2_t_25	18.1	0.173391221	temp_2
wq2_t_26	22	0.173391221	temp_2
wq2_t_27	20	0.173391221	temp_2
wq2_t_28	21.7	0.173391221	temp_2
wq2_t_29	24	0.173391221	temp_2
wq2_t_30	23.8	0.173391221	temp_2
wq2_t_31	25.1	0.173391221	temp_2
wq2_t_32	25.6	0.173391221	temp_2
wq2_t_33	24.6	0.173391221	temp_2
wq2_t_34	26	0.173391221	temp_2
wq2_t_35	26.6	0.173391221	temp_2
wq2_t_36	24.3	0.173391221	temp_2
wq2_t_37	24.3	0.173391221	temp_2
wq2_t_38	24.9	0.173391221	temp_2
wq2_t_39	26.5	0.173391221	temp_2
wq2_t_40	23.8	0.173391221	temp_2
wq2_t_41	21.3	0.173391221	temp_2
wq2_t_42	19.5	0.173391221	temp_2
wq2_t_43	20.9	0.173391221	temp_2
wq2_t_44	22.4	0.173391221	temp_2
wq2_t_45	20.7	0.173391221	temp_2
wq2_t_46	13.8	0.173391221	temp_2
wq2_t_47	2.8	0.173391221	temp_2
wq2_t_48	6.1	0.173391221	temp_2
wq2_t_49	6.8	0.173391221	temp_2
wq2_t_50	10.1	0.173391221	temp_2
wq2_t_51	9.7	0.173391221	temp_2
wq2_t_52	13.0031	0.173391221	temp_2
wq2_t_53	12.0929	0.173391221	temp_2
wq2_t_54	14.5657	0.173391221	temp_2
wq2_t_55	15.309	0.173391221	temp_2
wq2_t_56	16.23	0.173391221	temp_2
wq2_t_57	18.6709	0.173391221	temp_2
wq2_t_58	18.5294	0.173391221	temp_2
wq2_t_59	18.3273	0.173391221	temp_2
wq2_t_60	17.8	0.173391221	temp_2
wq2_t_61	17.3756	0.173391221	temp_2
wq2_t_62	17.9244	0.173391221	temp_2
wq2_t_63	18.1587	0.173391221	temp_2
wq2_t_64	19.0698	0.173391221	temp_2
wq2_t_65	19.5111	0.173391221	temp_2
wq2_t_66	19.9714	0.173391221	temp_2
wq2_t_67	19.2105	0.173391221	temp_2
wq2_t_68	21.0731	0.173391221	temp_2
wq2_t_69	21.3279	0.173391221	temp_2
wq2_t_70	22.1904	0.173391221	temp_2
wq2_t_71	21.5672	0.173391221	temp_2
wq2_t_72	22.3412	0.173391221	temp_2
wq2_t_73	23.3335	0.173391221	temp_2
wq2_t_74	23.366	0.173391221	temp_2
wq2_t_75	24.402	0.173391221	temp_2
wq2_t_76	24.2766	0.173391221	temp_2
wq2_t_77	25.037	0.173391221	temp_2
wq2_t_78	23.3636	0.173391221	temp_2
wq2_t_79	24.8	0.173391221	temp_2
wq2_t_80	23.7597	0.173391221	temp_2
wq2_t_81	23.7704	0.173391221	temp_2
wq2_t_82	26.2	0.173391221	temp_2
wq2_t_83	25.066	0.173391221	temp_2
wq2_t_84	24.688	0.173391221	temp_2
wq2_t_85	23.5643	0.173391221	temp_2
wq2_t_86	23.6773	0.173391221	temp_2
wq2_t_87	24.592	0.173391221	temp_2
wq2_t_88	25.3733	0.173391221	temp_2
wq2_t_89	23.4408	0.173391221	temp_2
wq2_t_90	22.3991	0.173391221	temp_2
wq2_t_91	22.9537	0.173391221	temp_2
wq2_t_92	22.0182	0.173391221	temp_2
wq2_t_93	20.6061	0.173391221	temp_2
wq2_t_94	22.4168	0.173391221	temp_2
wq2_t_95	17.2208	0.173391221	temp_2
wq2_t_96	15.8211	0.173391221	temp_2
wq2_t_97	15.3	0.173391221	temp_2
wq2_t_98	14.3723	0.173391221	temp_2
wq2_t_99	12.0219	0.173391221	temp_2
wq2_t_100	12.3447	0.173391221	temp_2
wq2_t_101	12.609	0.173391221	temp_2
wq2_t_102	8.0912	0.173391221	temp_2
wq2_t_103	2.4	0.173391221	temp_2
wq2_t_104	4.6749	0.173391221	temp_2
wq2_t_105	8.5	0.173391221	temp_2
wq2_t_106	10.9	0.173391221	temp_2
wq2_t_107	20	0.173391221	temp_2
wq2_t_108	19.7	0.173391221	temp_2
wq2_t_109	19.8	0.173391221	temp_2
wq2_t_110	23.7	0.173391221	temp_2
wq2_t_111	21.871	0.173391221	temp_2
wq2_t_112	20.7942	0.173391221	temp_2
wq2_t_113	20.3919	0.173391221	temp_2
wq2_t_114	20.538	0.173391221	temp_2
wq2_t_115	20.5326	0.173391221	temp_2
wq2_t_116	21.0123	0.173391221	temp_2
wq2_t_117	21.712	0.173391221	temp_2
wq2_t_118	22.1279	0.173391221	temp_2
wq2_t_119	23.0239	0.173391221	temp_2
wq2_t_120	26.0319	0.173391221	temp_2
wq2_t_121	23.2813	0.173391221	temp_2
wq2_t_122	24.9812	0.173391221	temp_2
wq2_t_123	25.0011	0.173391221	temp_2
wq2_t_124	24.8489	0.173391221	temp_2
wq2_t_125	24.7667	0.173391221	temp_2
wq2_t_126	24.2923	0.173391221	temp_2
wq2_t_127	24.096	0.173391221	temp_2
wq2_t_128	23.4238	0.173391221	temp_2
wq2_t_129	14.6981	0.173391221	temp_2
wq2_t_130	14.4917	0.173391221	temp_2
wq2_t_131	14.1011	0.173391221	temp_2
wq2_t_132	14.2236	0.173391221	temp_2
wq2_t_133	14.4307	0.173391221	temp_2
wq2_t_134	12.6191	0.173391221	temp_2
wq2_t_135	7.8514	0.173391221	temp_2
wq2_t_136	5.5389	0.173391221	temp_2
wq3_t_1	8.4897	0.173391221	temp_3
wq3_t_2	4.1	0.173391221	temp_3
wq3_t_3	8.2	0.173391221	temp_3
wq3_t_4	10.4396	0.173391221	temp_3
wq3_t_5	9.6	0.173391221	temp_3
wq3_t_6	12.13	0.173391221	temp_3
wq3_t_7	11.7	0.173391221	temp_3
wq3_t_8	11.6361	0.173391221	temp_3
wq3_t_9	12.2878	0.173391221	temp_3
wq3_t_10	12.0095	0.173391221	temp_3
wq3_t_11	11.982	0.173391221	temp_3
wq3_t_12	12.4828	0.173391221	temp_3
wq3_t_13	13.7	0.173391221	temp_3
wq3_t_14	12.9311	0.173391221	temp_3
wq3_t_15	12.5661	0.173391221	temp_3
wq3_t_16	14.4	0.173391221	temp_3
wq3_t_17	14.9	0.173391221	temp_3
wq3_t_18	15.8	0.173391221	temp_3
wq3_t_19	16.1	0.173391221	temp_3
wq3_t_20	16	0.173391221	temp_3
wq3_t_21	17	0.173391221	temp_3
wq3_t_22	17.3	0.173391221	temp_3
wq3_t_23	18.3	0.173391221	temp_3
wq3_t_24	18.3	0.173391221	temp_3
wq3_t_25	18.9	0.173391221	temp_3
wq3_t_26	20.1	0.173391221	temp_3
wq3_t_27	21.1	0.173391221	temp_3
wq3_t_28	22.4	0.173391221	temp_3
wq3_t_29	22.6	0.173391221	temp_3
wq3_t_30	23.7	0.173391221	temp_3
wq3_t_31	24.8	0.173391221	temp_3
wq3_t_32	24.3	0.173391221	temp_3
wq3_t_33	23.6	0.173391221	temp_3
wq3_t_34	23.7	0.173391221	temp_3
wq3_t_35	23.7	0.173391221	temp_3
wq3_t_36	24.7	0.173391221	temp_3
wq3_t_37	23.7	0.173391221	temp_3
wq3_t_38	20.9	0.173391221	temp_3
wq3_t_39	19.5	0.173391221	temp_3
wq3_t_40	19.7	0.173391221	temp_3
wq3_t_41	20.9	0.173391221	temp_3
wq3_t_42	20.2	0.173391221	temp_3
wq3_t_43	13.7	0.173391221	temp_3
wq3_t_44	2.9	0.173391221	temp_3
wq3_t_45	5.9	0.173391221	temp_3
wq3_t_46	8.3	0.173391221	temp_3
wq3_t_47	9.5	0.173391221	temp_3
wq3_t_48	11.9593	0.173391221	temp_3
wq3_t_49	10.9533	0.173391221	temp_3
wq3_t_50	13.6391	0.173391221	temp_3
wq3_t_51	13.4197	0.173391221	temp_3
wq3_t_52	13.5431	0.173391221	temp_3
wq3_t_53	14.9881	0.173391221	temp_3
wq3_t_54	14.4529	0.173391221	temp_3
wq3_t_55	15.0278	0.173391221	temp_3
wq3_t_56	16.6	0.173391221	temp_3
wq3_t_57	14.7044	0.173391221	temp_3
wq3_t_58	14.2953	0.173391221	temp_3
wq3_t_59	15.0648	0.173391221	temp_3
wq3_t_60	15.2755	0.173391221	temp_3
wq3_t_61	15.8177	0.173391221	temp_3
wq3_t_62	15.522	0.173391221	temp_3
wq3_t_63	16.1489	0.173391221	temp_3
wq3_t_64	15.523	0.173391221	temp_3
wq3_t_65	16.2883	0.173391221	temp_3
wq3_t_66	16.6097	0.173391221	temp_3
wq3_t_67	16.3711	0.173391221	temp_3
wq3_t_68	17.0682	0.173391221	temp_3
wq3_t_69	16.9997	0.173391221	temp_3
wq3_t_70	17.1679	0.173391221	temp_3
wq3_t_71	18.2176	0.173391221	temp_3
wq3_t_72	17.4784	0.173391221	temp_3
wq3_t_73	18.0925	0.173391221	temp_3
wq3_t_74	19.8275	0.173391221	temp_3
wq3_t_75	22.7	0.173391221	temp_3
wq3_t_76	18.8057	0.173391221	temp_3
wq3_t_77	19.4151	0.173391221	temp_3
wq3_t_78	23.3	0.173391221	temp_3
wq3_t_79	19.641	0.173391221	temp_3
wq3_t_80	21.1225	0.173391221	temp_3
wq3_t_81	21.1584	0.173391221	temp_3
wq3_t_82	14.4149	0.173391221	temp_3
wq3_t_83	22.0024	0.173391221	temp_3
wq3_t_84	21.9539	0.173391221	temp_3
wq3_t_85	21.3074	0.173391221	temp_3
wq3_t_86	20.2613	0.173391221	temp_3
wq3_t_87	17.1265	0.173391221	temp_3
wq3_t_88	15.6579	0.173391221	temp_3
wq3_t_89	15.3	0.173391221	temp_3
wq3_t_90	14.3652	0.173391221	temp_3
wq3_t_91	12.0028	0.173391221	temp_3
wq3_t_92	11.8157	0.173391221	temp_3
wq3_t_93	12.2075	0.173391221	temp_3
wq3_t_94	8.0837	0.173391221	temp_3
wq3_t_95	2.5	0.173391221	temp_3
wq3_t_96	4.5192	0.173391221	temp_3
wq3_t_97	8.3	0.173391221	temp_3
wq3_t_98	16.2	0.173391221	temp_3
wq3_t_99	16.8	0.173391221	temp_3
wq3_t_100	18.4	0.173391221	temp_3
wq3_t_101	15.5119	0.173391221	temp_3
wq3_t_102	15.8734	0.173391221	temp_3
wq3_t_103	17.228	0.173391221	temp_3
wq3_t_104	17.5511	0.173391221	temp_3
wq3_t_105	17.9986	0.173391221	temp_3
wq3_t_106	17.1795	0.173391221	temp_3
wq3_t_107	17.5798	0.173391221	temp_3
wq3_t_108	18.0526	0.173391221	temp_3
wq3_t_109	17.8885	0.173391221	temp_3
wq3_t_110	18.7051	0.173391221	temp_3
wq3_t_111	18.569	0.173391221	temp_3
wq3_t_112	18.8962	0.173391221	temp_3
wq3_t_113	18.1694	0.173391221	temp_3
wq3_t_114	18.9043	0.173391221	temp_3
wq3_t_115	20.0737	0.173391221	temp_3
wq3_t_116	20.5393	0.173391221	temp_3
wq3_t_117	20.0931	0.173391221	temp_3
wq3_t_118	20.2201	0.173391221	temp_3
wq3_t_119	18.9455	0.173391221	temp_3
wq3_t_120	14.6522	0.173391221	temp_3
wq3_t_121	14.4898	0.173391221	temp_3
wq3_t_122	14.0716	0.173391221	temp_3
wq3_t_123	13.9925	0.173391221	temp_3
wq3_t_124	13.9625	0.173391221	temp_3
wq3_t_125	12.6098	0.173391221	temp_3
wq3_t_126	7.4109	0.173391221	temp_3
wq3_t_127	5.5173	0.173391221	temp_3
wq4_t_1	8.3821	0.173391221	temp_4
wq4_t_2	4.1	0.173391221	temp_4
wq4_t_3	7.4	0.173391221	temp_4
wq4_t_4	8	0.173391221	temp_4
wq4_t_5	9.2932	0.173391221	temp_4
wq4_t_6	8.7	0.173391221	temp_4
wq4_t_7	11.4403	0.173391221	temp_4
wq4_t_8	11	0.173391221	temp_4
wq4_t_9	10.5119	0.173391221	temp_4
wq4_t_10	12	0.173391221	temp_4
wq4_t_11	10.4422	0.173391221	temp_4
wq4_t_12	10.2747	0.173391221	temp_4
wq4_t_13	11.8	0.173391221	temp_4
wq4_t_14	10.2193	0.173391221	temp_4
wq4_t_15	9.7701	0.173391221	temp_4
wq4_t_16	12.4	0.173391221	temp_4
wq4_t_17	10.0481	0.173391221	temp_4
wq4_t_18	10.6059	0.173391221	temp_4
wq4_t_19	12.9	0.173391221	temp_4
wq4_t_20	13.1	0.173391221	temp_4
wq4_t_21	13.3	0.173391221	temp_4
wq4_t_22	14.1	0.173391221	temp_4
wq4_t_23	13.6	0.173391221	temp_4
wq4_t_24	16.3	0.173391221	temp_4
wq4_t_25	16.2	0.173391221	temp_4
wq4_t_26	16.5	0.173391221	temp_4
wq4_t_27	16.7	0.173391221	temp_4
wq4_t_28	17.2	0.173391221	temp_4
wq4_t_29	18	0.173391221	temp_4
wq4_t_30	18.4	0.173391221	temp_4
wq4_t_31	19	0.173391221	temp_4
wq4_t_32	19.5	0.173391221	temp_4
wq4_t_33	20.9	0.173391221	temp_4
wq4_t_34	20.9	0.173391221	temp_4
wq4_t_35	21.6	0.173391221	temp_4
wq4_t_36	20.8	0.173391221	temp_4
wq4_t_37	20.7	0.173391221	temp_4
wq4_t_38	21.6	0.173391221	temp_4
wq4_t_39	21.7	0.173391221	temp_4
wq4_t_40	22.4	0.173391221	temp_4
wq4_t_41	20.6	0.173391221	temp_4
wq4_t_42	19.4	0.173391221	temp_4
wq4_t_43	19.1	0.173391221	temp_4
wq4_t_44	19.9	0.173391221	temp_4
wq4_t_45	19.5	0.173391221	temp_4
wq4_t_46	13.4	0.173391221	temp_4
wq4_t_47	2.9	0.173391221	temp_4
wq4_t_48	5.9	0.173391221	temp_4
wq4_t_49	7.2	0.173391221	temp_4
wq4_t_50	9.4	0.173391221	temp_4
wq4_t_51	8.6759	0.173391221	temp_4
wq4_t_52	8.3889	0.173391221	temp_4
wq4_t_53	9.6818	0.173391221	temp_4
wq4_t_54	10.1153	0.173391221	temp_4
wq4_t_55	10.0026	0.173391221	temp_4
wq4_t_56	10.767	0.173391221	temp_4
wq4_t_57	10.8503	0.173391221	temp_4
wq4_t_58	10.7391	0.173391221	temp_4
wq4_t_59	13.9	0.173391221	temp_4
wq4_t_60	10.4925	0.173391221	temp_4
wq4_t_61	10.9614	0.173391221	temp_4
wq4_t_62	11.0123	0.173391221	temp_4
wq4_t_63	10.9423	0.173391221	temp_4
wq4_t_64	11.7473	0.173391221	temp_4
wq4_t_65	11.8206	0.173391221	temp_4
wq4_t_66	11.2865	0.173391221	temp_4
wq4_t_67	12.3363	0.173391221	temp_4
wq4_t_68	11.9344	0.173391221	temp_4
wq4_t_69	12.5342	0.173391221	temp_4
wq4_t_70	12.2333	0.173391221	temp_4
wq4_t_71	12.3326	0.173391221	temp_4
wq4_t_72	12.6726	0.173391221	temp_4
wq4_t_73	13.1413	0.173391221	temp_4
wq4_t_74	13.0874	0.173391221	temp_4
wq4_t_75	13.2426	0.173391221	temp_4
wq4_t_76	13.4979	0.173391221	temp_4
wq4_t_77	14.0782	0.173391221	temp_4
wq4_t_78	17.2	0.173391221	temp_4
wq4_t_79	12.8469	0.173391221	temp_4
wq4_t_80	14.5314	0.173391221	temp_4
wq4_t_81	13.8063	0.173391221	temp_4
wq4_t_82	14.1005	0.173391221	temp_4
wq4_t_83	18.5	0.173391221	temp_4
wq4_t_84	14.398	0.173391221	temp_4
wq4_t_85	14.4286	0.173391221	temp_4
wq4_t_86	14.7346	0.173391221	temp_4
wq4_t_87	15.0275	0.173391221	temp_4
wq4_t_88	15.0212	0.173391221	temp_4
wq4_t_89	16.2578	0.173391221	temp_4
wq4_t_90	15.3696	0.173391221	temp_4
wq4_t_91	15.7725	0.173391221	temp_4
wq4_t_92	16.5377	0.173391221	temp_4
wq4_t_93	21.1957	0.173391221	temp_4
wq4_t_94	21.0497	0.173391221	temp_4
wq4_t_95	20.7827	0.173391221	temp_4
wq4_t_96	19.7447	0.173391221	temp_4
wq4_t_97	19.5836	0.173391221	temp_4
wq4_t_98	19.4689	0.173391221	temp_4
wq4_t_99	16.9933	0.173391221	temp_4
wq4_t_100	15.5326	0.173391221	temp_4
wq4_t_101	14.9	0.173391221	temp_4
wq4_t_102	14.3432	0.173391221	temp_4
wq4_t_103	12.0003	0.173391221	temp_4
wq4_t_104	11.7434	0.173391221	temp_4
wq4_t_105	12.1001	0.173391221	temp_4
wq4_t_106	8.0577	0.173391221	temp_4
wq4_t_107	2.7	0.173391221	temp_4
wq4_t_108	4.4369	0.173391221	temp_4
wq4_t_109	8.3	0.173391221	temp_4
wq4_t_110	9.9	0.173391221	temp_4
wq4_t_111	12.5	0.173391221	temp_4
wq4_t_112	12.5	0.173391221	temp_4
wq4_t_113	13.4	0.173391221	temp_4
wq4_t_114	14	0.173391221	temp_4
wq4_t_115	11.7427	0.173391221	temp_4
wq4_t_116	12.19	0.173391221	temp_4
wq4_t_117	12.6893	0.173391221	temp_4
wq4_t_118	12.2759	0.173391221	temp_4
wq4_t_119	12.6323	0.173391221	temp_4
wq4_t_120	12.2524	0.173391221	temp_4
wq4_t_121	13.1112	0.173391221	temp_4
wq4_t_122	13.8767	0.173391221	temp_4
wq4_t_123	13.5369	0.173391221	temp_4
wq4_t_124	13.373	0.173391221	temp_4
wq4_t_125	13.8025	0.173391221	temp_4
wq4_t_126	14.1786	0.173391221	temp_4
wq4_t_127	14.0794	0.173391221	temp_4
wq4_t_128	13.8348	0.173391221	temp_4
wq4_t_129	15.0617	0.173391221	temp_4
wq4_t_130	14.8897	0.173391221	temp_4
wq4_t_131	14.9082	0.173391221	temp_4
wq4_t_132	15.4663	0.173391221	temp_4
wq4_t_133	15.097	0.173391221	temp_4
wq4_t_134	15.2105	0.173391221	temp_4
wq4_t_135	15.004	0.173391221	temp_4
wq4_t_136	15.2434	0.173391221	temp_4
wq4_t_137	14.8387	0.173391221	temp_4
wq4_t_138	15.4946	0.173391221	temp_4
wq4_t_139	16.1749	0.173391221	temp_4
wq4_t_140	16.8891	0.173391221	temp_4
wq4_t_141	16.1166	0.173391221	temp_4
wq4_t_142	16.1581	0.173391221	temp_4
wq4_t_143	15.897	0.173391221	temp_4
wq4_t_144	16.4167	0.173391221	temp_4
wq4_t_145	16.4899	0.173391221	temp_4
wq4_t_146	14.562	0.173391221	temp_4
wq4_t_147	14.4718	0.173391221	temp_4
wq4_t_148	13.9171	0.173391221	temp_4
wq4_t_149	13.7909	0.173391221	temp_4
wq4_t_150	13.8601	0.173391221	temp_4
wq4_t_151	12.5922	0.173391221	temp_4
wq4_t_152	7.409	0.173391221	temp_4
wq4_t_153	5.5089	0.173391221	temp_4
wq5_t_1	8.1329	0.173391221	temp_5
wq5_t_2	4.1	0.173391221	temp_5
wq5_t_3	7.1	0.173391221	temp_5
wq5_t_4	7.9	0.173391221	temp_5
wq5_t_5	8.5213	0.173391221	temp_5
wq5_t_6	8.2	0.173391221	temp_5
wq5_t_7	10.6928	0.173391221	temp_5
wq5_t_8	9.5	0.173391221	temp_5
wq5_t_9	9.0327	0.173391221	temp_5
wq5_t_10	10.3	0.173391221	temp_5
wq5_t_11	8.9724	0.173391221	temp_5
wq5_t_12	9.3758	0.173391221	temp_5
wq5_t_13	9.4	0.173391221	temp_5
wq5_t_14	9.5569	0.173391221	temp_5
wq5_t_15	9.6964	0.173391221	temp_5
wq5_t_16	9.8	0.173391221	temp_5
wq5_t_17	9.7849	0.173391221	temp_5
wq5_t_18	9.9775	0.173391221	temp_5
wq5_t_19	10.2	0.173391221	temp_5
wq5_t_20	10.7	0.173391221	temp_5
wq5_t_21	10.9	0.173391221	temp_5
wq5_t_22	11.3	0.173391221	temp_5
wq5_t_23	10.9	0.173391221	temp_5
wq5_t_24	15.3	0.173391221	temp_5
wq5_t_25	15.3	0.173391221	temp_5
wq5_t_26	15.2	0.173391221	temp_5
wq5_t_27	14.9	0.173391221	temp_5
wq5_t_28	15.1	0.173391221	temp_5
wq5_t_29	15.3	0.173391221	temp_5
wq5_t_30	15.1	0.173391221	temp_5
wq5_t_31	15.2	0.173391221	temp_5
wq5_t_32	15.6	0.173391221	temp_5
wq5_t_33	18.9	0.173391221	temp_5
wq5_t_34	18.5	0.173391221	temp_5
wq5_t_35	18.3	0.173391221	temp_5
wq5_t_36	17.9	0.173391221	temp_5
wq5_t_37	17.6	0.173391221	temp_5
wq5_t_38	17.5	0.173391221	temp_5
wq5_t_39	17.8	0.173391221	temp_5
wq5_t_40	17.5	0.173391221	temp_5
wq5_t_41	17.7	0.173391221	temp_5
wq5_t_42	17.5	0.173391221	temp_5
wq5_t_43	17.9	0.173391221	temp_5
wq5_t_44	17.6	0.173391221	temp_5
wq5_t_45	17.7	0.173391221	temp_5
wq5_t_46	13.3	0.173391221	temp_5
wq5_t_47	2.9	0.173391221	temp_5
wq5_t_48	5.6	0.173391221	temp_5
wq5_t_49	5.8	0.173391221	temp_5
wq5_t_50	7	0.173391221	temp_5
wq5_t_51	8	0.173391221	temp_5
wq5_t_52	7.5213	0.173391221	temp_5
wq5_t_53	9.0219	0.173391221	temp_5
wq5_t_54	8.1914	0.173391221	temp_5
wq5_t_55	8.7247	0.173391221	temp_5
wq5_t_56	8.8285	0.173391221	temp_5
wq5_t_57	9.1762	0.173391221	temp_5
wq5_t_58	9.3757	0.173391221	temp_5
wq5_t_59	9.5192	0.173391221	temp_5
wq5_t_60	10.8	0.173391221	temp_5
wq5_t_61	9.9252	0.173391221	temp_5
wq5_t_62	10.0198	0.173391221	temp_5
wq5_t_63	10.066	0.173391221	temp_5
wq5_t_64	10.1873	0.173391221	temp_5
wq5_t_65	10.2928	0.173391221	temp_5
wq5_t_66	10.446	0.173391221	temp_5
wq5_t_67	10.5465	0.173391221	temp_5
wq5_t_68	10.7101	0.173391221	temp_5
wq5_t_69	10.8356	0.173391221	temp_5
wq5_t_70	10.9147	0.173391221	temp_5
wq5_t_71	10.9828	0.173391221	temp_5